&aerosol_nl
 dust_emis		= 'kok14'
 dust_emis_fact		= 0.35D0
 soil_erod		= '/R0/jhe/inputdata/atm/cam/dst/dst_128x256_c111225_IAP.nc'
/
&cam_inparm
 bnd_topo		= '/R0/jhe/inputdata/atm/cam/topo/USGS-gtopo30_128x256_c130401_IAP.nc'
 bnd_topo2		= '/R0/jhe/inputdata/atm/cam/topo/USGS_gtopo30_1.5min_to_128x256_c181120_IAP.nc'
 cam_branch_file		= ' '
 dtime		= 1200
 ncdata		= '/R0/jhe/inputdata/atm/cam/inic/IAP/IAPi_0000-01-01_128x256_L30_c120110.nc'
 !ncdata     = '/R0/jhe/inputdata/atm/cam/inic/IAP/IAPi_0000-01-01_128x256_L35_c180626.nc'
 print_energy_errors		= .false.
/
&chem_inparm
 aer_drydep_list		= 'bc_a1', 'dst_a1', 'dst_a3', 'ncl_a1', 'ncl_a2', 'ncl_a3', 'num_a1', 'num_a2', 'num_a3', 'pom_a1', 'so4_a1',
  'so4_a2', 'so4_a3', 'soa_a1', 'soa_a2'
 aer_wetdep_list		= 'bc_a1', 'dst_a1', 'dst_a3', 'ncl_a1', 'ncl_a2', 'ncl_a3', 'num_a1', 'num_a2', 'num_a3', 'pom_a1', 'so4_a1',
  'so4_a2', 'so4_a3', 'soa_a1', 'soa_a2'
 clim_soilw_file		= '/R0/jhe/inputdata/atm/cam/chem/trop_mozart/dvel/clim_soilw.nc'
 depvel_file		= '/R0/jhe/inputdata/atm/cam/chem/trop_mozart/dvel/depvel_monthly.nc'
 depvel_lnd_file		= '/R0/jhe/inputdata/atm/cam/chem/trop_mozart/dvel/regrid_vegetation.nc'
 exo_coldens_file		= '/R0/jhe/inputdata/atm/cam/chem/trop_mozart/phot/exo_coldens.nc'
 ext_frc_specifier		= 'SO2         -> /R0/jhe/inputdata/atm/cam/chem/trop_mozart_aero/emis/ar5_mam3_so2_elev_1850-2005_c090804.nc',
  'bc_a1       -> /R0/jhe/inputdata/atm/cam/chem/trop_mozart_aero/emis/ar5_mam3_bc_elev_1850-2005_c090804.nc',
  'num_a1      -> /R0/jhe/inputdata/atm/cam/chem/trop_mozart_aero/emis/ar5_mam3_num_a1_elev_1850-2005_c090804.nc',
  'num_a2      -> /R0/jhe/inputdata/atm/cam/chem/trop_mozart_aero/emis/ar5_mam3_num_a2_elev_1850-2005_c090804.nc',
  'pom_a1      -> /R0/jhe/inputdata/atm/cam/chem/trop_mozart_aero/emis/ar5_mam3_oc_elev_1850-2005_c090804.nc',
  'so4_a1      -> /R0/jhe/inputdata/atm/cam/chem/trop_mozart_aero/emis/ar5_mam3_so4_a1_elev_1850-2005_c090804.nc',
  'so4_a2      -> /R0/jhe/inputdata/atm/cam/chem/trop_mozart_aero/emis/ar5_mam3_so4_a2_elev_1850-2005_c090804.nc'
 ext_frc_type		= 'INTERP_MISSING_MONTHS'
 fstrat_list		= ' '
 rsf_file		= '/R0/jhe/inputdata/atm/waccm/phot/RSF_GT200nm_v3.0_c080416.nc'
 season_wes_file		= '/R0/jhe/inputdata/atm/cam/chem/trop_mozart/dvel/season_wes.nc'
 srf_emis_specifier		= 'DMS       -> /R0/jhe/inputdata/atm/cam/chem/trop_mozart_aero/emis/aerocom_mam3_dms_surf_1849-2006_c090804.nc',
  'SO2       -> /R0/jhe/inputdata/atm/cam/chem/trop_mozart_aero/emis/ar5_mam3_so2_surf_1850-2005_c090804.nc',
  'SOAG      -> /R0/jhe/inputdata/atm/cam/chem/trop_mozart_aero/emis/ar5_mam3_soag_1.5_surf_1850-2005_c100429.nc',
  'bc_a1     -> /R0/jhe/inputdata/atm/cam/chem/trop_mozart_aero/emis/ar5_mam3_bc_surf_1850-2005_c090804.nc',
  'num_a1    -> /R0/jhe/inputdata/atm/cam/chem/trop_mozart_aero/emis/ar5_mam3_num_a1_surf_1850-2005_c090804.nc',
  'num_a2    -> /R0/jhe/inputdata/atm/cam/chem/trop_mozart_aero/emis/ar5_mam3_num_a2_surf_1850-2005_c090804.nc',
  'pom_a1    -> /R0/jhe/inputdata/atm/cam/chem/trop_mozart_aero/emis/ar5_mam3_oc_surf_1850-2005_c090804.nc',
  'so4_a1    -> /R0/jhe/inputdata/atm/cam/chem/trop_mozart_aero/emis/ar5_mam3_so4_a1_surf_1850-2005_c090804.nc',
  'so4_a2    -> /R0/jhe/inputdata/atm/cam/chem/trop_mozart_aero/emis/ar5_mam3_so4_a2_surf_1850-2005_c090804.nc'
 srf_emis_type		= 'INTERP_MISSING_MONTHS'
 tracer_cnst_datapath		= '/R0/jhe/inputdata/atm/cam/chem/trop_mozart_aero/oxid'
 tracer_cnst_file		= 'oxid_1.9x2.5_L26_1850-2005_c091123.nc'
 tracer_cnst_filelist		= 'oxid_1.9x2.5_L26_clim_list.c090805.txt'
 tracer_cnst_specifier		= 'O3','OH','NO3','HO2'
 tracer_cnst_type		= 'INTERP_MISSING_MONTHS'
 use_cam_sulfchem		= .false.
 xactive_prates		= .false.
 xs_long_file		= '/R0/jhe/inputdata/atm/waccm/phot/temp_prs_GT200nm_jpl06_c080930.nc'
/
&chem_surfvals_nl
 bndtvghg		= '/R0/jhe/inputdata/atm/cam/ggas/ghg_hist_1765-2005_c091218.nc'
 co2vmr		= 379.000e-6
 flbc_list		= ' '
 scenario_ghg		= 'RAMPED'
/
&cldfrc_nl
 cldfrc_dp1		=  0.10D0 
 cldfrc_dp2		=  500.0D0 
 cldfrc_freeze_dry		= .true.
 cldfrc_ice		= .true.
 cldfrc_premit		=  40000.0D0 
 cldfrc_rhminh		=  0.800D0 
 cldfrc_rhminl		=  0.89D0 
 cldfrc_sh1		=  0.07D0 
 cldfrc_sh2		=  500.0D0 
/
&cldsed_nl
 cldsed_ice_stokes_fac		=  1.0D0 
/
&cldwat_nl
 cldwat_conke		=   5.0e-6  
 cldwat_icritc		=  16.0e-6  
 cldwat_icritw		=   4.0e-4  
 cldwat_r3lcrit		=   10.0e-6  
/
&gw_drag_nl
 effgw_beres		= 	0.1	
 fcrit2		= 1.0
 gw_drag_file		= '/R0/jhe/inputdata/atm/waccm/gw/newmfspectra40_dc25.nc'
 gw_drag_scheme		= 	1	
/
&hkconv_nl
 hkconv_c0		=   1.0e-4 
 hkconv_cmftau		=  1800.0D0 
/
&modal_aer_opt_nl
 modal_optics_file		= '/R0/jhe/inputdata/atm/cam/physprops/modal_optics_3mode_c100507.nc'
 water_refindex_file		= '/R0/jhe/inputdata/atm/cam/physprops/water_refindex_rrtmg_c080910.nc'
/
&phys_ctl_nl
 cam_chempkg		= 'trop_mam3'
 cam_physpkg		= 'cam5'
 conv_water_in_rad		=  1 
 deep_scheme		= 'ZM'
 do_iss		=  .true.  
 do_tms		=  .true.  
 eddy_scheme		= 'diag_TKE'
 history_microphysics		=   .true.  
 microp_scheme		= 'MG'
 shallow_scheme		= 'UW'
 srf_flux_avg		= 0
 tms_orocnst		=  1.0D0   
 tms_z0fac		=  0.075D0 
/
&prescribed_ozone_nl
 prescribed_ozone_datapath		= '/R0/jhe/inputdata/atm/cam/ozone'
 prescribed_ozone_file		= 'ozone_1.9x2.5_L26_1850-2005_c090803.nc'
 prescribed_ozone_name		= 'O3'
 prescribed_ozone_type		= 'INTERP_MISSING_MONTHS'
/
&prescribed_volcaero_nl
 prescribed_volcaero_datapath		= '/R0/jhe/inputdata/atm/cam/volc'
 prescribed_volcaero_file		= 'CCSM4_volcanic_1850-2008_prototype1.nc'
/
&rad_cnst_nl
 icecldoptics		= 'mitchell'
 iceopticsfile		= '/R0/jhe/inputdata/atm/cam/physprops/iceoptics_c080917.nc'
 liqcldoptics		= 'gammadist'
 liqopticsfile		= '/R0/jhe/inputdata/atm/cam/physprops/F_nwvl200_mu20_lam50_res64_t298_c080428.nc'
 rad_climate		= 'P_Q:H2O', 'D_O2:O2', 'D_CO2:CO2', 'D_ozone:O3', 'D_N2O:N2O', 'D_CH4:CH4', 'D_CFC11:CFC11',
  'D_CFC12:CFC12', 'P_so4_a1:/R0/jhe/inputdata/atm/cam/physprops/sulfate_rrtmg_c080918.nc',
  'P_pom_a1:/R0/jhe/inputdata/atm/cam/physprops/ocpho_rrtmg_c101112.nc',
  'P_soa_a1:/R0/jhe/inputdata/atm/cam/physprops/ocphi_rrtmg_c100508.nc',
  'P_bc_a1:/R0/jhe/inputdata/atm/cam/physprops/bcpho_rrtmg_c100508.nc',
  'P_dst_a1:/R0/jhe/inputdata/atm/cam/physprops/dust4_rrtmg_c090521.nc',
  'P_ncl_a1:/R0/jhe/inputdata/atm/cam/physprops/ssam_rrtmg_c100508.nc',
  'P_so4_a2:/R0/jhe/inputdata/atm/cam/physprops/sulfate_rrtmg_c080918.nc',
  'P_soa_a2:/R0/jhe/inputdata/atm/cam/physprops/ocphi_rrtmg_c100508.nc',
  'P_ncl_a2:/R0/jhe/inputdata/atm/cam/physprops/ssam_rrtmg_c100508.nc',
  'P_dst_a3:/R0/jhe/inputdata/atm/cam/physprops/dust4_rrtmg_c090521.nc',
  'P_ncl_a3:/R0/jhe/inputdata/atm/cam/physprops/ssam_rrtmg_c100508.nc',
  'P_so4_a3:/R0/jhe/inputdata/atm/cam/physprops/sulfate_rrtmg_c080918.nc',
  'D_VOLC_MMR:/R0/jhe/inputdata/atm/cam/physprops/rrtmg_Bi_sigma1.8_c100521.nc'
/
&solar_inparm
 solar_const		= -9999.
 solar_data_file		= '/R0/jhe/inputdata/atm/cam/solar/SOLAR_SPECTRAL_Lean_1610-2008_annual_c090324.nc'
 solar_data_type		= 'SERIAL'
 solar_htng_spctrl_scl		= .true.
/
&tropopause_nl
 tropopause_climo_file		= '/R0/jhe/inputdata/atm/cam/chem/trop_mozart/ub/clim_p_trop.nc'
/
&uwshcu_nl
 uwshcu_rpen		=   10.0 
/
&wetdep_inparm
 gas_wetdep_list		= 'H2O2','SO2'
/
&zmconv_nl
 zmconv_c0_lnd		=  0.0059D0 
 zmconv_c0_ocn		=  0.0450D0 
 zmconv_dmpdz		=  -1.0E-3 
 zmconv_ke		=  1.0E-6 
/
&spmd_iap_inparm
 npr_yz         = 32,4,4,32
 Ndt            = 4
 Ndq            = 4
 DTDY           = 150.0D0
/
